# Title
# Create by IAW[XTB+Gaussian16]
# 
@<TRIPOS>MOLECULE
Molecule Name
199 203
SMALL
NO_CHARGES


@<TRIPOS>ATOM
1 Ru1    6.5336    1.0349    4.8114  Ru
2 P2    5.1708    2.8241    5.4432  P
3 P3    8.2124    2.6076    4.4581  P
4 O4    5.9512    6.8077    1.0624  O
5 O5    7.5291    6.8391    2.8081  O
6 O6    7.2609    7.6385    5.6442  O
7 O7    8.6541    7.7054    7.4732  O
8 C8    5.4698    3.5692    7.0663  C
9 C9    5.8255    2.7367    8.1409  C
10 H10    5.9219    1.6703    8.0195  H
11 C11    5.8603    3.2686    9.4420  C
12 C12    5.8348    4.6154    9.6053  C
13 C13    5.3591    5.4311    8.5761  C
14 C14    5.1845    4.8666    7.3420  C
15 H15    4.7628    5.3348    6.4621  H
16 C16    3.4551    2.3142    5.7553  C
17 C17    2.7865    2.7765    6.8879  C
18 H18    3.0818    3.6848    7.3913  H
19 C19    1.5105    2.2598    7.2903  C
20 C20    1.0593    1.2491    6.5434  C
21 C21    1.5244    0.9698    5.1610  C
22 C22    2.7964    1.4675    4.8799  C
23 H23    3.4317    1.1046    4.0896  H
24 C24    5.4235    4.2057    4.1992  C
25 C25    4.3575    4.3337    3.3043  C
26 H26    3.5859    3.5781    3.2720  H
27 C27    4.4347    5.1720    2.1955  C
28 H28    3.5921    5.1820    1.5179  H
29 C29    5.5509    6.0310    2.1581  C
30 C30    7.2368    7.4070    1.4621  C
31 H31    7.1357    8.4957    1.5977  H
32 H32    8.1094    7.0858    0.8683  H
33 C33    6.5075    5.9627    3.1323  C
34 C34    6.5233    5.0353    4.1752  C
35 C35    7.5244    5.1521    5.2177  C
36 C36    7.7286    6.3947    5.8781  C
37 C37    7.9213    8.4990    6.5465  C
38 H38    8.5708    9.0439    5.8370  H
39 H39    7.3058    9.2297    7.0878  H
40 C40    8.5616    6.4603    6.9957  C
41 C41    9.1671    5.2904    7.5674  C
42 H42    9.8357    5.4201    8.4073  H
43 C43    9.0207    4.1869    6.7898  C
44 H44    9.3735    3.2087    7.0766  H
45 C45    8.3064    4.0293    5.6296  C
46 C46    8.5901    3.4954    2.8810  C
47 C47    7.9353    3.1811    1.6446  C
48 H48    7.1515    2.4375    1.6673  H
49 C49    8.4668    3.5977    0.4646  C
50 C50    9.7088    4.3137    0.4153  C
51 C51    10.1932    4.8250    1.5900  C
52 C52    9.7204    4.2638    2.7917  C
53 H53    10.2953    4.6096    3.6423  H
54 C54    9.6688    1.4890    4.5549  C
55 C55    9.9574    0.6994    3.4115  C
56 H56    9.5131    0.9995    2.4713  H
57 C57    10.9553    -0.2327    3.3649  C
58 C58    11.8222    -0.2614    4.4756  C
59 C59    11.7439    0.6082    5.6181  C
60 C60    10.5464    1.3115    5.6334  C
61 H61    10.4200    2.1316    6.3195  H
62 O62    7.7684    1.4746    6.3747  O
63 O63    5.8359    0.2176    3.1091  O
64 C64    8.1060    0.5554    7.2494  C
65 C65    5.0724    0.5744    2.1499  C
66 C66    7.6506    -0.8095    6.9675  C
67 H67    8.2905    -1.4739    7.5494  H
68 H68    6.6217    -0.9306    7.3160  H
69 H69    7.6914    -1.0029    5.8986  H
70 C70    4.8283    -0.5184    1.0507  C
71 H71    3.7690    -0.7662    1.0149  H
72 H72    4.8785    0.0624    0.1320  H
73 H73    5.5602    -1.2757    1.3167  H
74 O74    4.5345    1.6931    2.0924  O
75 O75    8.9003    0.8376    8.1205  O
76 C76    11.4720    -0.7704    2.0041  C
77 C77    12.5992    0.6473    6.9150  C
78 C78    12.7443    -0.0043    1.8846  C
79 H79    13.5329    -0.0968    2.6270  H
80 H80    13.2069    -0.1950    0.9141  H
81 H81    12.3417    1.0060    1.8345  H
82 C82    11.7144    -2.3132    1.9574  C
83 H83    12.6089    -2.4390    2.5681  H
84 H84    10.8081    -2.7613    2.3648  H
85 H85    11.9864    -2.5809    0.9356  H
86 C86    10.5377    -0.3055    0.8912  C
87 H87    9.5663    -0.6854    1.2043  H
88 H88    10.5328    0.7785    0.7788  H
89 H89    10.7670    -0.5629    -0.1434  H
90 C90    14.0450    0.1102    6.6776  C
91 H91    13.9521    -0.8189    6.1206  H
92 H92    14.7731    0.8282    6.3024  H
93 H93    14.3255    -0.2315    7.6755  H
94 C94    11.9492    -0.1853    8.0211  C
95 H95    11.0420    0.3400    8.3165  H
96 H96    11.5161    -1.1213    7.6677  H
97 H97    12.6613    -0.2671    8.8429  H
98 C98    12.5910    2.0812    7.4664  C
99 H99    11.5938    2.3246    7.8294  H
100 H100    13.2268    2.2279    8.3399  H
101 H101    12.9489    2.8762    6.8114  H
102 C102    11.2688    5.9625    1.6454  C
103 C103    12.6963    5.3039    1.6236  C
104 H104    13.3756    5.8952    1.0085  H
105 H105    13.2656    5.1266    2.5363  H
106 H106    12.5117    4.3554    1.1202  H
107 C107    11.0597    6.8938    0.3659  C
108 H108    10.0530    7.2913    0.2382  H
109 H109    11.6135    7.8045    0.6001  H
110 H110    11.4752    6.4661    -0.5426  H
111 C111    10.8497    6.6999    2.9909  C
112 H112    10.8556    7.7788    2.8324  H
113 H113    9.9082    6.4268    3.4640  H
114 H114    11.6886    6.6338    3.6824  H
115 C115    7.7186    3.2918    -0.8714  C
116 C116    8.1768    1.9288    -1.5532  C
117 H117    7.4984    1.5449    -2.3166  H
118 H118    9.0498    2.1633    -2.1577  H
119 H119    8.3601    1.1447    -0.8176  H
120 C120    7.8185    4.5329    -1.7575  C
121 H121    7.7931    5.4553    -1.1790  H
122 H122    8.6547    4.5359    -2.4524  H
123 H123    6.9077    4.4619    -2.3539  H
124 C124    6.0972    3.0802    -0.6846  C
125 H125    5.8977    2.1448    -0.1642  H
126 H126    5.7327    3.8705    -0.0301  H
127 H127    5.6535    3.0723    -1.6814  H
128 C128    0.7862    0.3658    4.0372  C
129 C129    0.9823    1.2323    2.8266  C
130 H130    0.6399    2.2423    3.0542  H
131 H131    2.0091    1.1326    2.4802  H
132 H132    0.4267    0.8689    1.9612  H
133 C133    -0.7691    0.1074    4.2391  C
134 H134    -1.2892    1.0624    4.1773  H
135 H135    -0.9651    -0.3057    3.2483  H
136 H136    -0.9960    -0.4881    5.1192  H
137 C137    1.3738    -0.9997    3.7412  C
138 H138    2.4021    -1.2230    4.0273  H
139 H139    0.7871    -1.7722    4.2382  H
140 H140    1.3357    -1.1567    2.6633  H
141 C141    1.0084    2.7038    8.6220  C
142 C142    0.5137    4.1171    8.4209  C
143 H143    1.2264    4.8334    8.0114  H
144 H144    -0.3564    4.0588    7.7683  H
145 H145    0.4266    4.5267    9.4279  H
146 C146    -0.2258    1.8884    9.2467  C
147 H147    -0.3388    2.3847    10.2111  H
148 H148    -1.1184    2.1036    8.6578  H
149 H149    -0.0582    0.8178    9.3505  H
150 C150    2.1864    2.6280    9.6290  C
151 H151    1.8457    2.9290    10.6209  H
152 H152    2.3027    1.5517    9.7248  H
153 H153    3.0231    3.1850    9.2067  H
154 C154    5.8705    2.2113    10.6182  C
155 C155    7.2804    1.8487    10.8867  C
156 H156    7.8716    2.7430    11.0837  H
157 H157    7.2888    1.0923    11.6719  H
158 H158    7.7379    1.4723    9.9730  H
159 C159    5.1791    2.7474    11.9236  C
160 H160    4.3665    3.4138    11.6372  H
161 H161    4.8292    1.8993    12.5146  H
162 H162    5.8710    3.3123    12.5429  H
163 C163    5.1329    0.9779    10.1799  C
164 H164    5.8152    0.2563    9.7348  H
165 H165    4.6965    0.3972    10.9929  H
166 H166    4.4809    1.0413    9.3078  H
167 C167    4.8999    6.9428    8.8396  C
168 C168    6.0259    7.6930    9.3801  C
169 H169    7.0094    7.5660    8.9281  H
170 H170    5.8074    8.7440    9.1867  H
171 H171    6.0345    7.7029    10.4673  H
172 C172    3.6096    6.8713    9.8844  C
173 H173    2.8172    6.3277    9.3682  H
174 H174    3.9621    6.4709    10.8350  H
175 H175    3.5393    7.9558    9.9152  H
176 C176    4.4437    7.7567    7.6368  C
177 H177    5.1739    7.8200    6.8299  H
178 H178    3.5214    7.3123    7.2619  H
179 H179    4.1474    8.7697    7.9118  H
180 O180    10.3081    4.6002    -0.8146  O
181 O181    6.1423    5.1526    10.9089  O
182 O182    0.0054    0.4322    6.9752  O
183 O183    12.7900    -1.3216    4.4911  O
184 C184    0.3747    -0.8860    7.4304  C
185 H185    1.2585    -0.9666    8.0716  H
186 H186    -0.5153    -1.1787    7.9983  H
187 H187    0.6152    -1.6248    6.6648  H
188 C188    7.4587    5.4939    10.8913  C
189 H189    8.0326    4.6009    11.1420  H
190 H190    7.9484    5.9757    10.0393  H
191 H191    7.6923    6.1145    11.7631  H
192 C192    12.4168    -2.5718    4.9538  C
193 H193    11.4651    -2.8744    4.5004  H
194 H194    13.2085    -3.2888    4.7323  H
195 H195    12.4255    -2.5016    6.0474  H
196 C196    11.2336    3.7321    -1.3468  C
197 H197    10.9309    3.5258    -2.3791  H
198 H198    12.2182    4.2017    -1.3186  H
199 H199    11.4401    2.7745    -0.8560  H
@<TRIPOS>BOND
1 2 8 1
2 2 16 1
3 2 24 1
4 3 45 1
5 3 46 1
6 3 54 1
7 4 29 1
8 4 30 1
9 5 30 1
10 5 33 1
11 6 36 1
12 6 37 1
13 7 37 1
14 7 40 1
15 8 9 2
16 8 14 1
17 9 10 1
18 9 11 1
19 11 12 2
20 11 154 1
21 12 13 1
22 12 181 1
23 13 14 2
24 13 167 1
25 14 15 1
26 16 17 1
27 16 22 2
28 17 18 1
29 17 19 2
30 19 20 1
31 19 141 1
32 20 21 2
33 20 182 1
34 21 22 1
35 21 128 1
36 22 23 1
37 24 25 2
38 24 34 1
39 25 26 1
40 25 27 1
41 27 28 1
42 27 29 2
43 29 33 1
44 30 31 1
45 30 32 1
46 33 34 2
47 34 35 1
48 35 36 2
49 35 45 1
50 36 40 1
51 37 38 1
52 37 39 1
53 40 41 2
54 41 42 1
55 41 43 1
56 43 44 1
57 43 45 2
58 46 47 1
59 46 52 2
60 47 48 1
61 47 49 2
62 49 50 1
63 49 115 1
64 50 51 2
65 50 180 1
66 51 52 1
67 51 102 1
68 52 53 1
69 54 55 2
70 54 60 1
71 55 56 1
72 55 57 1
73 57 58 2
74 57 76 1
75 58 59 1
76 58 183 1
77 59 60 2
78 59 77 1
79 60 61 1
80 62 64 1
81 63 65 1
82 64 66 1
83 64 75 2
84 65 70 1
85 65 74 2
86 66 67 1
87 66 68 1
88 66 69 1
89 70 71 1
90 70 72 1
91 70 73 1
92 76 78 1
93 76 82 1
94 76 86 1
95 77 90 1
96 77 94 1
97 77 98 1
98 78 79 1
99 78 80 1
100 78 81 1
101 82 83 1
102 82 84 1
103 82 85 1
104 86 87 1
105 86 88 1
106 86 89 1
107 90 91 1
108 90 92 1
109 90 93 1
110 94 95 1
111 94 96 1
112 94 97 1
113 98 99 1
114 98 100 1
115 98 101 1
116 102 103 1
117 102 107 1
118 102 111 1
119 103 104 1
120 103 105 1
121 103 106 1
122 107 108 1
123 107 109 1
124 107 110 1
125 111 112 1
126 111 113 1
127 111 114 1
128 115 116 1
129 115 120 1
130 115 124 1
131 116 117 1
132 116 118 1
133 116 119 1
134 120 121 1
135 120 122 1
136 120 123 1
137 124 125 1
138 124 126 1
139 124 127 1
140 128 129 1
141 128 133 1
142 128 137 1
143 129 130 1
144 129 131 1
145 129 132 1
146 133 134 1
147 133 135 1
148 133 136 1
149 137 138 1
150 137 139 1
151 137 140 1
152 141 142 1
153 141 146 1
154 141 150 1
155 142 143 1
156 142 144 1
157 142 145 1
158 146 147 1
159 146 148 1
160 146 149 1
161 150 151 1
162 150 152 1
163 150 153 1
164 154 155 1
165 154 159 1
166 154 163 1
167 155 156 1
168 155 157 1
169 155 158 1
170 159 160 1
171 159 161 1
172 159 162 1
173 163 164 1
174 163 165 1
175 163 166 1
176 167 168 1
177 167 172 1
178 167 176 1
179 168 169 1
180 168 170 1
181 168 171 1
182 172 173 1
183 172 174 1
184 172 175 1
185 176 177 1
186 176 178 1
187 176 179 1
188 180 196 1
189 181 188 1
190 182 184 1
191 183 192 1
192 184 185 1
193 184 186 1
194 184 187 1
195 188 189 1
196 188 190 1
197 188 191 1
198 192 193 1
199 192 194 1
200 192 195 1
201 196 197 1
202 196 198 1
203 196 199 1
