CAT-63
     RDKit          3D

  0  0  0  0  0  0  0  0  0  0999 V3000
M  V30 BEGIN CTAB
M  V30 COUNTS 199 207 0 0 0
M  V30 BEGIN ATOM
M  V30 1 Ru 6.533600 1.034900 4.811400 0 CHG=2 VAL=4
M  V30 2 P 5.170800 2.824100 5.443200 0
M  V30 3 P 8.212400 2.607600 4.458100 0
M  V30 4 O 5.951200 6.807700 1.062400 0
M  V30 5 O 7.529100 6.839100 2.808100 0
M  V30 6 O 7.260900 7.638500 5.644200 0
M  V30 7 O 8.654100 7.705400 7.473200 0
M  V30 8 C 5.469800 3.569200 7.066300 0
M  V30 9 C 5.825500 2.736700 8.140900 0
M  V30 10 H 5.921900 1.670300 8.019500 0
M  V30 11 C 5.860300 3.268600 9.442000 0
M  V30 12 C 5.834800 4.615400 9.605300 0
M  V30 13 C 5.359100 5.431100 8.576100 0
M  V30 14 C 5.184500 4.866600 7.342000 0
M  V30 15 H 4.762800 5.334800 6.462100 0
M  V30 16 C 3.455100 2.314200 5.755300 0
M  V30 17 C 2.786500 2.776500 6.887900 0
M  V30 18 H 3.081800 3.684800 7.391300 0
M  V30 19 C 1.510500 2.259800 7.290300 0
M  V30 20 C 1.059300 1.249100 6.543400 0
M  V30 21 C 1.524400 0.969800 5.161000 0
M  V30 22 C 2.796400 1.467500 4.879900 0
M  V30 23 H 3.431700 1.104600 4.089600 0
M  V30 24 C 5.423500 4.205700 4.199200 0
M  V30 25 C 4.357500 4.333700 3.304300 0
M  V30 26 H 3.585900 3.578100 3.272000 0
M  V30 27 C 4.434700 5.172000 2.195500 0
M  V30 28 H 3.592100 5.182000 1.517900 0
M  V30 29 C 5.550900 6.031000 2.158100 0
M  V30 30 C 7.236800 7.407000 1.462100 0
M  V30 31 H 7.135700 8.495700 1.597700 0
M  V30 32 H 8.109400 7.085800 0.868300 0
M  V30 33 C 6.507500 5.962700 3.132300 0
M  V30 34 C 6.523300 5.035300 4.175200 0
M  V30 35 C 7.524400 5.152100 5.217700 0
M  V30 36 C 7.728600 6.394700 5.878100 0
M  V30 37 C 7.921300 8.499000 6.546500 0
M  V30 38 H 8.570800 9.043900 5.837000 0
M  V30 39 H 7.305800 9.229700 7.087800 0
M  V30 40 C 8.561600 6.460300 6.995700 0
M  V30 41 C 9.167100 5.290400 7.567400 0
M  V30 42 H 9.835700 5.420100 8.407300 0
M  V30 43 C 9.020700 4.186900 6.789800 0
M  V30 44 H 9.373500 3.208700 7.076600 0
M  V30 45 C 8.306400 4.029300 5.629600 0
M  V30 46 C 8.590100 3.495400 2.881000 0
M  V30 47 C 7.935300 3.181100 1.644600 0
M  V30 48 H 7.151500 2.437500 1.667300 0
M  V30 49 C 8.466800 3.597700 0.464600 0
M  V30 50 C 9.708800 4.313700 0.415300 0
M  V30 51 C 10.193200 4.825000 1.590000 0
M  V30 52 C 9.720400 4.263800 2.791700 0
M  V30 53 H 10.295300 4.609600 3.642300 0
M  V30 54 C 9.668800 1.489000 4.554900 0
M  V30 55 C 9.957400 0.699400 3.411500 0
M  V30 56 H 9.513100 0.999500 2.471300 0
M  V30 57 C 10.955300 -0.232700 3.364900 0
M  V30 58 C 11.822200 -0.261400 4.475600 0
M  V30 59 C 11.743900 0.608200 5.618100 0
M  V30 60 C 10.546400 1.311500 5.633400 0
M  V30 61 H 10.420000 2.131600 6.319500 0
M  V30 62 O 7.768400 1.474600 6.374700 0 CHG=-1
M  V30 63 O 5.835900 0.217600 3.109100 0 CHG=-1
M  V30 64 C 8.106000 0.555400 7.249400 0
M  V30 65 C 5.072400 0.574400 2.149900 0
M  V30 66 C 7.650600 -0.809500 6.967500 0
M  V30 67 H 8.290500 -1.473900 7.549400 0
M  V30 68 H 6.621700 -0.930600 7.316000 0
M  V30 69 H 7.691400 -1.002900 5.898600 0
M  V30 70 C 4.828300 -0.518400 1.050700 0
M  V30 71 H 3.769000 -0.766200 1.014900 0
M  V30 72 H 4.878500 0.062400 0.132000 0
M  V30 73 H 5.560200 -1.275700 1.316700 0
M  V30 74 O 4.534500 1.693100 2.092400 0
M  V30 75 O 8.900300 0.837600 8.120500 0
M  V30 76 C 11.472000 -0.770400 2.004100 0
M  V30 77 C 12.599200 0.647300 6.915000 0
M  V30 78 C 12.744300 -0.004300 1.884600 0
M  V30 79 H 13.532900 -0.096800 2.627000 0
M  V30 80 H 13.206900 -0.195000 0.914100 0
M  V30 81 H 12.341700 1.006000 1.834500 0
M  V30 82 C 11.714400 -2.313200 1.957400 0
M  V30 83 H 12.608900 -2.439000 2.568100 0
M  V30 84 H 10.808100 -2.761300 2.364800 0
M  V30 85 H 11.986400 -2.580900 0.935600 0
M  V30 86 C 10.537700 -0.305500 0.891200 0
M  V30 87 H 9.566300 -0.685400 1.204300 0
M  V30 88 H 10.532800 0.778500 0.778800 0
M  V30 89 H 10.767000 -0.562900 -0.143400 0
M  V30 90 C 14.045000 0.110200 6.677600 0
M  V30 91 H 13.952100 -0.818900 6.120600 0
M  V30 92 H 14.773100 0.828200 6.302400 0
M  V30 93 H 14.325500 -0.231500 7.675500 0
M  V30 94 C 11.949200 -0.185300 8.021100 0
M  V30 95 H 11.042000 0.340000 8.316500 0
M  V30 96 H 11.516100 -1.121300 7.667700 0
M  V30 97 H 12.661300 -0.267100 8.842900 0
M  V30 98 C 12.591000 2.081200 7.466400 0
M  V30 99 H 11.593800 2.324600 7.829400 0
M  V30 100 H 13.226800 2.227900 8.339900 0
M  V30 101 H 12.948900 2.876200 6.811400 0
M  V30 102 C 11.268800 5.962500 1.645400 0
M  V30 103 C 12.696300 5.303900 1.623600 0
M  V30 104 H 13.375600 5.895200 1.008500 0
M  V30 105 H 13.265600 5.126600 2.536300 0
M  V30 106 H 12.511700 4.355400 1.120200 0
M  V30 107 C 11.059700 6.893800 0.365900 0
M  V30 108 H 10.053000 7.291300 0.238200 0
M  V30 109 H 11.613500 7.804500 0.600100 0
M  V30 110 H 11.475200 6.466100 -0.542600 0
M  V30 111 C 10.849700 6.699900 2.990900 0
M  V30 112 H 10.855600 7.778800 2.832400 0
M  V30 113 H 9.908200 6.426800 3.464000 0
M  V30 114 H 11.688600 6.633800 3.682400 0
M  V30 115 C 7.718600 3.291800 -0.871400 0
M  V30 116 C 8.176800 1.928800 -1.553200 0
M  V30 117 H 7.498400 1.544900 -2.316600 0
M  V30 118 H 9.049800 2.163300 -2.157700 0
M  V30 119 H 8.360100 1.144700 -0.817600 0
M  V30 120 C 7.818500 4.532900 -1.757500 0
M  V30 121 H 7.793100 5.455300 -1.179000 0
M  V30 122 H 8.654700 4.535900 -2.452400 0
M  V30 123 H 6.907700 4.461900 -2.353900 0
M  V30 124 C 6.097200 3.080200 -0.684600 0
M  V30 125 H 5.897700 2.144800 -0.164200 0
M  V30 126 H 5.732700 3.870500 -0.030100 0
M  V30 127 H 5.653500 3.072300 -1.681400 0
M  V30 128 C 0.786200 0.365800 4.037200 0
M  V30 129 C 0.982300 1.232300 2.826600 0
M  V30 130 H 0.639900 2.242300 3.054200 0
M  V30 131 H 2.009100 1.132600 2.480200 0
M  V30 132 H 0.426700 0.868900 1.961200 0
M  V30 133 C -0.769100 0.107400 4.239100 0
M  V30 134 H -1.289200 1.062400 4.177300 0
M  V30 135 H -0.965100 -0.305700 3.248300 0
M  V30 136 H -0.996000 -0.488100 5.119200 0
M  V30 137 C 1.373800 -0.999700 3.741200 0
M  V30 138 H 2.402100 -1.223000 4.027300 0
M  V30 139 H 0.787100 -1.772200 4.238200 0
M  V30 140 H 1.335700 -1.156700 2.663300 0
M  V30 141 C 1.008400 2.703800 8.622000 0
M  V30 142 C 0.513700 4.117100 8.420900 0
M  V30 143 H 1.226400 4.833400 8.011400 0
M  V30 144 H -0.356400 4.058800 7.768300 0
M  V30 145 H 0.426600 4.526700 9.427900 0
M  V30 146 C -0.225800 1.888400 9.246700 0
M  V30 147 H -0.338800 2.384700 10.211100 0
M  V30 148 H -1.118400 2.103600 8.657800 0
M  V30 149 H -0.058200 0.817800 9.350500 0
M  V30 150 C 2.186400 2.628000 9.629000 0
M  V30 151 H 1.845700 2.929000 10.620900 0
M  V30 152 H 2.302700 1.551700 9.724800 0
M  V30 153 H 3.023100 3.185000 9.206700 0
M  V30 154 C 5.870500 2.211300 10.618200 0
M  V30 155 C 7.280400 1.848700 10.886700 0
M  V30 156 H 7.871600 2.743000 11.083700 0
M  V30 157 H 7.288800 1.092300 11.671900 0
M  V30 158 H 7.737900 1.472300 9.973000 0
M  V30 159 C 5.179100 2.747400 11.923600 0
M  V30 160 H 4.366500 3.413800 11.637200 0
M  V30 161 H 4.829200 1.899300 12.514600 0
M  V30 162 H 5.871000 3.312300 12.542900 0
M  V30 163 C 5.132900 0.977900 10.179900 0
M  V30 164 H 5.815200 0.256300 9.734800 0
M  V30 165 H 4.696500 0.397200 10.992900 0
M  V30 166 H 4.480900 1.041300 9.307800 0
M  V30 167 C 4.899900 6.942800 8.839600 0
M  V30 168 C 6.025900 7.693000 9.380100 0
M  V30 169 H 7.009400 7.566000 8.928100 0
M  V30 170 H 5.807400 8.744000 9.186700 0
M  V30 171 H 6.034500 7.702900 10.467300 0
M  V30 172 C 3.609600 6.871300 9.884400 0
M  V30 173 H 2.817200 6.327700 9.368200 0
M  V30 174 H 3.962100 6.470900 10.835000 0
M  V30 175 H 3.539300 7.955800 9.915200 0
M  V30 176 C 4.443700 7.756700 7.636800 0
M  V30 177 H 5.173900 7.820000 6.829900 0
M  V30 178 H 3.521400 7.312300 7.261900 0
M  V30 179 H 4.147400 8.769700 7.911800 0
M  V30 180 O 10.308100 4.600200 -0.814600 0
M  V30 181 O 6.142300 5.152600 10.908900 0
M  V30 182 O 0.005400 0.432200 6.975200 0
M  V30 183 O 12.790000 -1.321600 4.491100 0
M  V30 184 C 0.374700 -0.886000 7.430400 0
M  V30 185 H 1.258500 -0.966600 8.071600 0
M  V30 186 H -0.515300 -1.178700 7.998300 0
M  V30 187 H 0.615200 -1.624800 6.664800 0
M  V30 188 C 7.458700 5.493900 10.891300 0
M  V30 189 H 8.032600 4.600900 11.142000 0
M  V30 190 H 7.948400 5.975700 10.039300 0
M  V30 191 H 7.692300 6.114500 11.763100 0
M  V30 192 C 12.416800 -2.571800 4.953800 0
M  V30 193 H 11.465100 -2.874400 4.500400 0
M  V30 194 H 13.208500 -3.288800 4.732300 0
M  V30 195 H 12.425500 -2.501600 6.047400 0
M  V30 196 C 11.233600 3.732100 -1.346800 0
M  V30 197 H 10.930900 3.525800 -2.379100 0
M  V30 198 H 12.218200 4.201700 -1.318600 0
M  V30 199 H 11.440100 2.774500 -0.856000 0
M  V30 END ATOM
M  V30 BEGIN BOND
M  V30 1 1 2 8
M  V30 2 1 2 16
M  V30 3 1 2 24
M  V30 4 1 3 45
M  V30 5 1 3 46
M  V30 6 1 3 54
M  V30 7 1 4 29
M  V30 8 1 4 30
M  V30 9 1 5 30
M  V30 10 1 5 33
M  V30 11 1 6 36
M  V30 12 1 6 37
M  V30 13 1 7 37
M  V30 14 1 7 40
M  V30 15 2 8 9
M  V30 16 1 8 14
M  V30 17 1 9 10
M  V30 18 1 9 11
M  V30 19 2 11 12
M  V30 20 1 11 154
M  V30 21 1 12 13
M  V30 22 1 12 181
M  V30 23 2 13 14
M  V30 24 1 13 167
M  V30 25 1 14 15
M  V30 26 2 16 17
M  V30 27 1 16 22
M  V30 28 1 17 18
M  V30 29 1 17 19
M  V30 30 2 19 20
M  V30 31 1 19 141
M  V30 32 1 20 21
M  V30 33 1 20 182
M  V30 34 2 21 22
M  V30 35 1 21 128
M  V30 36 1 22 23
M  V30 37 2 24 25
M  V30 38 1 24 34
M  V30 39 1 25 26
M  V30 40 1 25 27
M  V30 41 1 27 28
M  V30 42 2 27 29
M  V30 43 1 29 33
M  V30 44 1 30 31
M  V30 45 1 30 32
M  V30 46 2 33 34
M  V30 47 1 34 35
M  V30 48 2 35 36
M  V30 49 1 35 45
M  V30 50 1 36 40
M  V30 51 1 37 38
M  V30 52 1 37 39
M  V30 53 2 40 41
M  V30 54 1 41 42
M  V30 55 1 41 43
M  V30 56 1 43 44
M  V30 57 2 43 45
M  V30 58 2 46 47
M  V30 59 1 46 52
M  V30 60 1 47 48
M  V30 61 1 47 49
M  V30 62 2 49 50
M  V30 63 1 49 115
M  V30 64 1 50 51
M  V30 65 1 50 180
M  V30 66 2 51 52
M  V30 67 1 51 102
M  V30 68 1 52 53
M  V30 69 2 54 55
M  V30 70 1 54 60
M  V30 71 1 55 56
M  V30 72 1 55 57
M  V30 73 2 57 58
M  V30 74 1 57 76
M  V30 75 1 58 59
M  V30 76 1 58 183
M  V30 77 2 59 60
M  V30 78 1 59 77
M  V30 79 1 60 61
M  V30 80 1 62 64
M  V30 81 1 63 65
M  V30 82 1 64 66
M  V30 83 2 64 75
M  V30 84 1 65 70
M  V30 85 2 65 74
M  V30 86 1 66 67
M  V30 87 1 66 68
M  V30 88 1 66 69
M  V30 89 1 70 71
M  V30 90 1 70 72
M  V30 91 1 70 73
M  V30 92 1 76 78
M  V30 93 1 76 82
M  V30 94 1 76 86
M  V30 95 1 77 90
M  V30 96 1 77 94
M  V30 97 1 77 98
M  V30 98 1 78 79
M  V30 99 1 78 80
M  V30 100 1 78 81
M  V30 101 1 82 83
M  V30 102 1 82 84
M  V30 103 1 82 85
M  V30 104 1 86 87
M  V30 105 1 86 88
M  V30 106 1 86 89
M  V30 107 1 90 91
M  V30 108 1 90 92
M  V30 109 1 90 93
M  V30 110 1 94 95
M  V30 111 1 94 96
M  V30 112 1 94 97
M  V30 113 1 98 99
M  V30 114 1 98 100
M  V30 115 1 98 101
M  V30 116 1 102 103
M  V30 117 1 102 107
M  V30 118 1 102 111
M  V30 119 1 103 104
M  V30 120 1 103 105
M  V30 121 1 103 106
M  V30 122 1 107 108
M  V30 123 1 107 109
M  V30 124 1 107 110
M  V30 125 1 111 112
M  V30 126 1 111 113
M  V30 127 1 111 114
M  V30 128 1 115 116
M  V30 129 1 115 120
M  V30 130 1 115 124
M  V30 131 1 116 117
M  V30 132 1 116 118
M  V30 133 1 116 119
M  V30 134 1 120 121
M  V30 135 1 120 122
M  V30 136 1 120 123
M  V30 137 1 124 125
M  V30 138 1 124 126
M  V30 139 1 124 127
M  V30 140 1 128 129
M  V30 141 1 128 133
M  V30 142 1 128 137
M  V30 143 1 129 130
M  V30 144 1 129 131
M  V30 145 1 129 132
M  V30 146 1 133 134
M  V30 147 1 133 135
M  V30 148 1 133 136
M  V30 149 1 137 138
M  V30 150 1 137 139
M  V30 151 1 137 140
M  V30 152 1 141 142
M  V30 153 1 141 146
M  V30 154 1 141 150
M  V30 155 1 142 143
M  V30 156 1 142 144
M  V30 157 1 142 145
M  V30 158 1 146 147
M  V30 159 1 146 148
M  V30 160 1 146 149
M  V30 161 1 150 151
M  V30 162 1 150 152
M  V30 163 1 150 153
M  V30 164 1 154 155
M  V30 165 1 154 159
M  V30 166 1 154 163
M  V30 167 1 155 156
M  V30 168 1 155 157
M  V30 169 1 155 158
M  V30 170 1 159 160
M  V30 171 1 159 161
M  V30 172 1 159 162
M  V30 173 1 163 164
M  V30 174 1 163 165
M  V30 175 1 163 166
M  V30 176 1 167 168
M  V30 177 1 167 172
M  V30 178 1 167 176
M  V30 179 1 168 169
M  V30 180 1 168 170
M  V30 181 1 168 171
M  V30 182 1 172 173
M  V30 183 1 172 174
M  V30 184 1 172 175
M  V30 185 1 176 177
M  V30 186 1 176 178
M  V30 187 1 176 179
M  V30 188 1 180 196
M  V30 189 1 181 188
M  V30 190 1 182 184
M  V30 191 1 183 192
M  V30 192 1 184 185
M  V30 193 1 184 186
M  V30 194 1 184 187
M  V30 195 1 188 189
M  V30 196 1 188 190
M  V30 197 1 188 191
M  V30 198 1 192 193
M  V30 199 1 192 194
M  V30 200 1 192 195
M  V30 201 1 196 197
M  V30 202 1 196 198
M  V30 203 1 196 199
M  V30 204 9 63 1
M  V30 205 9 62 1
M  V30 206 9 2 1
M  V30 207 9 3 1
M  V30 END BOND
M  V30 END CTAB
M  END
>  <_TriposChargeType>  (1) 
NO_CHARGES

>  <SMILES>  (1) 
[H]c1c([H])c2[P](c3c([H])c(C(C([H])([H])[H])(C([H])([H])[H])C([H])([H])[H])c(OC([H])([H])[H])c(C(C([H])([H])[H])(C([H])([H])[H])C([H])([H])[H])c3[H])(c3c([H])c(C(C([H])([H])[H])(C([H])([H])[H])C([H])([H])[H])c(OC([H])([H])[H])c(C(C([H])([H])[H])(C([H])([H])[H])C([H])([H])[H])c3[H])->[Ru+2](<-[O-]C(=O)C([H])([H])[H])(<-[O-]C(=O)C([H])([H])[H])<-[P](c3c([H])c(C(C([H])([H])[H])(C([H])([H])[H])C([H])([H])[H])c(OC([H])([H])[H])c(C(C([H])([H])[H])(C([H])([H])[H])C([H])([H])[H])c3[H])(c3c([H])c(C(C([H])([H])[H])(C([H])([H])[H])C([H])([H])[H])c(OC([H])([H])[H])c(C(C([H])([H])[H])(C([H])([H])[H])C([H])([H])[H])c3[H])c3c([H])c([H])c4c(c3-c2c2c1OC([H])([H])O2)OC([H])([H])O4

$$$$
