# Molecule Name
# Created by GaussView 6.0.16
#

#
#

@<TRIPOS>MOLECULE
Molecule Name
199 203
SMALL
NO_CHARGES


@<TRIPOS>ATOM
1 Ru1     6.4008     0.8454     4.7209 Ru
2 P2     5.2242     2.7828     5.2751 P
3 P3     8.3116     2.2417     4.2355 P
4 O4     5.8827     7.4391     1.4452 O
5 O5     7.5566     7.1399     3.0943 O
6 O6     7.4067     7.2796     5.9531 O
7 O7     8.9111     7.0948     7.7692 O
8 C8     5.6544     3.5140     6.8900 C
9 C9     6.4773     2.9364     7.7942 C
10 H10     6.9812     2.0228     7.5587 H
11 C11     6.6860     3.6195     9.1655 C
12 C12     6.0130     4.7672     9.4699 C
13 C13     5.0865     5.4179     8.4318 C
14 C14     4.9479     4.8478     7.2163 C
15 H15     4.3268     5.3136     6.4786 H
16 C16     3.4734     2.3638     5.4393 C
17 C17     2.8301     2.4035     6.8359 C
18 H18     3.4276     2.6354     7.6941 H
19 C19     1.5047     2.1697     6.9770 C
20 C20     0.6553     1.8134     5.7396 C
21 C21     1.2347     1.7445     4.5103 C
22 C22     2.7351     2.0474     4.3509 C
23 H23     3.1951     2.0036     3.3856 H
24 C24     5.3637     4.1062     4.0507 C
25 C25     4.3716     4.2882     3.1335 C
26 H26     3.5194     3.6343     3.1329 H
27 C27     4.4729     5.4569     2.1219 C
28 H28     3.7202     5.6062     1.3833 H
29 C29     5.5384     6.2890     2.2188 C
30 C30     7.3308     7.5118     1.6901 C
31 H31     7.7049     8.4987     1.4929 H
32 H32     7.8355     6.8151     1.0463 H
33 C33     6.5872     6.1045     3.2411 C
34 C34     6.5499     5.0888     4.1155 C
35 C35     7.6344     4.9283     5.1705 C
36 C36     7.9247     5.9585     5.9712 C
37 C37     7.6076     7.6318     7.3597 C
38 H38     7.5694     8.6943     7.4946 H
39 H39     6.8375     7.1760     7.9512 H
40 C40     8.8759     5.8409     7.0984 C
41 C41     9.5396     4.6941     7.3675 C
42 H42    10.2035     4.6125     8.1973 H
43 C43     9.3070     3.5051     6.4125 C
44 H44     9.8524     2.5886     6.5409 H
45 C45     8.4179     3.6275     5.3770 C
46 C46     8.4095     2.9487     2.5369 C
47 C47     7.9202     2.2108     1.2951 C
48 H48     7.4106     1.2787     1.4005 H
49 C49     8.1458     2.7452     0.0625 C
50 C50     8.8772     4.0999    -0.0949 C
51 C51     9.2858     4.7799     1.0018 C
52 C52     9.0372     4.1732     2.3968 C
53 H53     9.3634     4.7106     3.2678 H
54 C54     9.9279     1.4242     4.3244 C
55 C55    10.8844     1.7574     3.3811 C
56 H56    10.6492     2.4517     2.5955 H
57 C57    12.2971     1.1502     3.4576 C
58 C58    12.5846     0.2839     4.4580 C
59 C59    11.5011    -0.0905     5.4996 C
60 C60    10.2500     0.4235     5.4126 C
61 H61     9.4942     0.1523     6.1156 H
62 O62     6.9575     0.1731     5.9897 O
63 O63     5.3719    -0.2259     5.1276 O
64 C64     7.4744    -0.4511     7.1678 C
65 C65     4.4165    -1.2207     5.5052 C
66 C66     8.1673     0.4015     8.2469 C
67 H67     8.5166     1.3140     7.8107 H
68 H68     7.4705     0.6234     9.0280 H
69 H69     8.9963    -0.1404     8.6519 H
70 C70     4.2637    -1.6148     6.9860 C
71 H71     4.8039    -2.5195     7.1719 H
72 H72     4.6526    -0.8335     7.6050 H
73 H73     3.2282    -1.7653     7.2100 H
74 O74     3.7003    -1.7751     4.6316 O
75 O75     7.3651    -1.6948     7.3258 O
76 C76    13.3623     1.5089     2.4048 C
77 C77    11.8359    -1.0673     6.6421 C
78 C78    14.6658     0.7493     2.7141 C
79 H79    14.4790    -0.3040     2.6907 H
80 H80    15.4052     0.9968     1.9813 H
81 H81    15.0189     1.0275     3.6851 H
82 C82    12.8559     1.1110     1.0059 C
83 H83    12.1948     0.2740     1.0907 H
84 H84    12.3332     1.9356     0.5680 H
85 H85    13.6880     0.8471     0.3872 H
86 C86    13.6305     3.0249     2.4417 C
87 H87    12.8880     3.5326     1.8622 H
88 H88    13.5903     3.3697     3.4538 H
89 H89    14.5995     3.2257     2.0347 H
90 C90    13.3181    -1.4752     6.5510 C
91 H91    13.4956    -1.9684     5.6181 H
92 H92    13.9330    -0.6019     6.6154 H
93 H93    13.5556    -2.1388     7.3561 H
94 C94    10.9501    -2.3213     6.5214 C
95 H95    10.2374    -2.3326     7.3194 H
96 H96    10.4352    -2.3054     5.5836 H
97 H97    11.5622    -3.1971     6.5775 H
98 C98    11.5743    -0.3824     7.9963 C
99 H99    11.5125     0.6764     7.8545 H
100 H100    10.6534    -0.7418     8.4058 H
101 H101    12.3753    -0.6058     8.6697 H
102 C102    10.0066     6.1325     0.8516 C
103 C103    11.3745     5.9134     0.1791 C
104 H104    11.5423     6.6815    -0.5466 H
105 H105    12.1458     5.9480     0.9199 H
106 H106    11.3859     4.9583    -0.3033 H
107 C107     9.1529     7.0755    -0.0165 C
108 H108     8.1987     6.6267    -0.1984 H
109 H109     9.0179     8.0060     0.4942 H
110 H110     9.6489     7.2489    -0.9486 H
111 C111    10.2130     6.7613     2.2422 C
112 H112    10.0670     7.8195     2.1804 H
113 H113     9.5084     6.3437     2.9307 H
114 H114    11.2071     6.5576     2.5817 H
115 C115     7.6834     1.9791    -1.1908 C
116 C116     8.5055     2.4422    -2.4079 C
117 H117     8.3279     1.7814    -3.2306 H
118 H118     8.2135     3.4353    -2.6786 H
119 H119     9.5464     2.4315    -2.1602 H
120 C120     6.1904     2.2605    -1.4427 C
121 H121     5.5993     1.6882    -0.7587 H
122 H122     5.9945     3.3024    -1.2982 H
123 H123     5.9402     1.9864    -2.4463 H
124 C124     7.8918     0.4686    -0.9752 C
125 H125     8.8414     0.3023    -0.5109 H
126 H126     7.1152     0.0877    -0.3454 H
127 H127     7.8637    -0.0337    -1.9196 H
128 C128     0.3914     1.3600     3.2804 C
129 C129     1.2694     0.5907     2.2760 C
130 H130     1.9810     1.2597     1.8389 H
131 H131     1.7856    -0.1971     2.7837 H
132 H132     0.6517     0.1751     1.5075 H
133 C133    -0.1545     2.6360     2.6131 C
134 H134     0.4804     2.9112     1.7970 H
135 H135    -1.1439     2.4528     2.2492 H
136 H136    -0.1793     3.4305     3.3294 H
137 C137    -0.7842     0.4687     3.7224 C
138 H138    -1.4750     1.0489     4.2978 H
139 H139    -1.2797     0.0776     2.8585 H
140 H140    -0.4146    -0.3396     4.3181 H
141 C141     0.8505     2.2643     8.3680 C
142 C142     1.8034     1.6751     9.4246 C
143 H143     2.2400     0.7737     9.0481 H
144 H144     2.5765     2.3823     9.6415 H
145 H145     1.2558     1.4600    10.3183 H
146 C146     0.5639     3.7402     8.7012 C
147 H147    -0.3693     3.8142     9.2194 H
148 H148     1.3472     4.1246     9.3205 H
149 H149     0.5146     4.3074     7.7952 H
150 C150    -0.4701     1.4720     8.3690 C
151 H151    -0.8606     1.4308     9.3644 H
152 H152    -1.1771     1.9563     7.7283 H
153 H153    -0.2902     0.4784     8.0150 H
154 C154     7.6471     2.9994    10.1967 C
155 C155     9.0321     2.8010     9.5532 C
156 H156     9.6418     3.6586     9.7474 H
157 H157     9.4971     1.9314     9.9684 H
158 H158     8.9197     2.6753     8.4966 H
159 C159     7.7746     3.9394    11.4098 C
160 H160     6.8176     4.0541    11.8744 H
161 H161     8.4648     3.5225    12.1132 H
162 H162     8.1301     4.8949    11.0848 H
163 C163     7.0958     1.6376    10.6583 C
164 H164     6.3316     1.3146     9.9825 H
165 H165     7.8876     0.9181    10.6714 H
166 H166     6.6849     1.7338    11.6415 H
167 C167     4.3071     6.7014     8.7735 C
168 C168     5.2628     7.7287     9.4082 C
169 H169     5.4755     8.5027     8.7007 H
170 H170     4.8035     8.1548    10.2756 H
171 H171     6.1735     7.2425     9.6894 H
172 C172     3.1788     6.3677     9.7671 C
173 H173     3.1629     7.0994    10.5476 H
174 H174     2.2395     6.3722     9.2547 H
175 H175     3.3502     5.3996    10.1893 H
176 C176     3.7003     7.2913     7.4869 C
177 H177     4.4860     7.5517     6.8088 H
178 H178     3.0601     6.5662     7.0295 H
179 H179     3.1332     8.1660     7.7285 H
180 O180     9.0447     4.5117    -1.0682 O
181 O181     6.1314     5.2195    10.4324 O
182 O182    -0.3923     1.6249     5.8492 O
183 O183    13.5665    -0.1345     4.5331 O
184 C184    -1.7923     1.3728     5.9956 C
185 H185    -2.3018     1.6588     5.0992 H
186 H186    -1.9498     0.3304     6.1783 H
187 H187    -2.1727     1.9407     6.8187 H
188 C188     6.2897     5.8241    11.7186 C
189 H189     6.0687     5.1055    12.4800 H
190 H190     7.2979     6.1643    11.8311 H
191 H191     5.6210     6.6547    11.8070 H
192 C192    14.8789    -0.6936     4.6334 C
193 H193    15.0864    -1.2754     3.7598 H
194 H194    15.5972     0.0951     4.7157 H
195 H195    14.9349    -1.3188     5.5000 H
196 C196     9.2684     5.0620    -2.3689 C
197 H197     9.8749     4.3910    -2.9406 H
198 H198     8.3298     5.2031    -2.8628 H
199 H199     9.7680     6.0037    -2.2767 H
@<TRIPOS>BOND
1 2 8 1
2 2 16 1
3 2 24 1
4 3 45 1
5 3 46 1
6 3 54 1
7 4 29 1
8 4 30 1
9 5 30 1
10 5 33 1
11 6 36 1
12 6 37 1
13 7 37 1
14 7 40 1
15 8 9 2
16 8 14 1
17 9 10 1
18 9 11 1
19 11 12 2
20 11 154 1
21 12 13 1
22 12 181 1
23 13 14 2
24 13 167 1
25 14 15 1
26 16 17 1
27 16 22 2
28 17 18 1
29 17 19 2
30 19 20 1
31 19 141 1
32 20 21 2
33 20 182 1
34 21 22 1
35 21 128 1
36 22 23 1
37 24 25 2
38 24 34 1
39 25 26 1
40 25 27 1
41 27 28 1
42 27 29 2
43 29 33 1
44 30 31 1
45 30 32 1
46 33 34 2
47 34 35 1
48 35 36 2
49 35 45 1
50 36 40 1
51 37 38 1
52 37 39 1
53 40 41 2
54 41 42 1
55 41 43 1
56 43 44 1
57 43 45 2
58 46 47 1
59 46 52 2
60 47 48 1
61 47 49 2
62 49 50 1
63 49 115 1
64 50 51 2
65 50 180 1
66 51 52 1
67 51 102 1
68 52 53 1
69 54 55 2
70 54 60 1
71 55 56 1
72 55 57 1
73 57 58 2
74 57 76 1
75 58 59 1
76 58 183 1
77 59 60 2
78 59 77 1
79 60 61 1
80 62 64 1
81 63 65 1
82 64 66 1
83 64 75 2
84 65 70 1
85 65 74 2
86 66 67 1
87 66 68 1
88 66 69 1
89 70 71 1
90 70 72 1
91 70 73 1
92 76 78 1
93 76 82 1
94 76 86 1
95 77 90 1
96 77 94 1
97 77 98 1
98 78 79 1
99 78 80 1
100 78 81 1
101 82 83 1
102 82 84 1
103 82 85 1
104 86 87 1
105 86 88 1
106 86 89 1
107 90 91 1
108 90 92 1
109 90 93 1
110 94 95 1
111 94 96 1
112 94 97 1
113 98 99 1
114 98 100 1
115 98 101 1
116 102 103 1
117 102 107 1
118 102 111 1
119 103 104 1
120 103 105 1
121 103 106 1
122 107 108 1
123 107 109 1
124 107 110 1
125 111 112 1
126 111 113 1
127 111 114 1
128 115 116 1
129 115 120 1
130 115 124 1
131 116 117 1
132 116 118 1
133 116 119 1
134 120 121 1
135 120 122 1
136 120 123 1
137 124 125 1
138 124 126 1
139 124 127 1
140 128 129 1
141 128 133 1
142 128 137 1
143 129 130 1
144 129 131 1
145 129 132 1
146 133 134 1
147 133 135 1
148 133 136 1
149 137 138 1
150 137 139 1
151 137 140 1
152 141 142 1
153 141 146 1
154 141 150 1
155 142 143 1
156 142 144 1
157 142 145 1
158 146 147 1
159 146 148 1
160 146 149 1
161 150 151 1
162 150 152 1
163 150 153 1
164 154 155 1
165 154 159 1
166 154 163 1
167 155 156 1
168 155 157 1
169 155 158 1
170 159 160 1
171 159 161 1
172 159 162 1
173 163 164 1
174 163 165 1
175 163 166 1
176 167 168 1
177 167 172 1
178 167 176 1
179 168 169 1
180 168 170 1
181 168 171 1
182 172 173 1
183 172 174 1
184 172 175 1
185 176 177 1
186 176 178 1
187 176 179 1
188 180 196 1
189 181 188 1
190 182 184 1
191 183 192 1
192 184 185 1
193 184 186 1
194 184 187 1
195 188 189 1
196 188 190 1
197 188 191 1
198 192 193 1
199 192 194 1
200 192 195 1
201 196 197 1
202 196 198 1
203 196 199 1
